* $Revision:   1.2  $
* $Author:   HIRASUNA  $
* $Date:   06 JUL 2001 13:26:32  $

*SPICE Parameter Library for PHILIPS' Low Frequency Small Signal Transistors
*
*This PHILIPS library contains SPICE parameter for Philips' Low Frequency 
*Small Signal Transistors.  These parameters are intended for use in simulation
*programs using the standard Gummel Poon model.  For detailed information 
*about transistors mentioned in this library please refer to the data book SC04, 
*Small Signal Transistors, 1995, for PZTM1101 and PZTM1102 please refer to 
*SC01, Diodes, 1996.  PHILIPS appreciates comments with regard to the usefulness 
*and/or accuracy of the data presented herein. Please send your comments to your 
*local sales office or directly to:
*
*PHILIPS Semiconductors
*Philips Röhren - und Halbleiterwerke
*attn. Ms Anke Becker
*Building N503
*Marketing Assistant LF Small Signal Transistors
*Stresemannallee 101
*22529 Hamburg
*Germany
*Phone:  ++49 40 5613 2434
*FAX:    ++49 40 5613 2909
*email:   de61BEA@NLEVDPSB.SNADS.PHILIPS.NL
*
*DISCLAIMER
*
*These data are intended for use by customers in the design of electrical
*circuits using PHILIPS semiconductors.  The usual care has been taken,
*first, in generating the data, and second, in transfering them to Cadence.
*However, no responsibility for inaccuracies can be assumed
*by PHILIPS.  PHILIPS does not assume any liability arising out of the use
*of the data or circuits builts therefrom; neither does it convey any
*license under its patent rights nor the rights of others.
*
*PHILIPS reserves the right to make changes without futher notice to any
*products described in the part herein to improve reliability, function or
*design.
*
*$
.MODEL Q2PA1576Q/PLP PNP( 
+ IS = 1.604E-14
+ NF = 0.9982
+ ISE = 3.351E-15
+ NE = 1.397
+ BF = 212.1
+ IKF = 0.08039
+ VAF = 37.2
+ NR = 1.006
+ ISC = 1.842E-14
+ NC = 1.2  
+ BR = 7.351
+ IKR = 0.047
+ VAR = 11.42
+ RB = 1
+ IRB = 1E-06
+ RBM = 1  
+ RE = 0.692
+ RC = 0.6886
+ XTB = 0
+ EG = 1.11
+ XTI = 3
+ CJE = 1.307E-11
+ VJE = 0.7282
+ MJE = 0.396
+ TF = 6.839E-10
+ XTF = 9.882
+ VTF = 5.669  
+ ITF = 0.2739
+ PTF = 0
+ CJC = 6.848E-12
+ VJC = 0.364
+ MJC = 0.3835  
+ XCJC = 0.6288
+ TR = 1E-32
+ CJS = 0
+ VJS = 0.75
+ MJS = 0.333
+ FC = 0.99 )
*$
*
.MODEL Q2PA1576R/PLP PNP( 
+ IS = 2.514E-14
+ NF = 0.9978
+ ISE = 5.697E-15
+ NE = 1.421
+ BF = 315.5  
+ IKF = 0.08039
+ VAF = 40.01
+ NR = 1.001
+ ISC = 2.533E-14
+ NC = 1.25  
+ BR = 9.217
+ IKR = 0.047
+ VAR = 32.02
+ RB = 1
+ IRB = 1E-06
+ RBM = 1  
+ RE = 0.6308
+ RC = 0.956
+ XTB = 0
+ EG = 1.11
+ XTI = 3
+ CJE = 1.17E-11  
+ VJE = 0.746
+ MJE = 0.4143
+ TF = 6.328E-10
+ XTF = 6.555
+ VTF = 2.416  
+ ITF = 0.129
+ PTF = 0
+ CJC = 6.96E-12
+ VJC = 0.778
+ MJC = 0.6596  
+ XCJC = 0.6288
+ TR = 1E-32
+ CJS = 0
+ VJS = 0.75
+ MJS = 0.333
+ FC = 0.79 )
*$
*
.MODEL Q2PA1576S/PLP PNP( 
+ IS = 2.515E-14
+ NF = 0.993
+ ISE = 3.596E-15
+ NE = 1.414
+ BF = 406.2 
+ IKF = 0.08039
+ VAF = 27.54
+ NR = 0.998
+ ISC = 5.876E-15
+ NC = 1.15  
+ BR = 12.22
+ IKR = 0.02471
+ VAR = 9.183
+ RB = 1
+ IRB = 1E-06
+ RBM = 1  
+ RE = 0.5387
+ RC = 0.6883
+ XTB = 0
+ EG = 1.11
+ XTI = 3
+ CJE = 1.117E-11 
+ VJE = 0.775
+ MJE = 0.432
+ TF = 5.807E-10
+ XTF = 4.339
+ VTF = 7.041
+ ITF = 0.1482
+ PTF = 0
+ CJC = 7.054E-12
+ VJC = 0.678
+ MJC = 0.6696  
+ XCJC = 0.6288
+ TR = 1E-32
+ CJS = 0
+ VJS = 0.75
+ MJS = 0.333
+ FC = 0.8101)
*$
*
.MODEL Q2PA1774Q/PLP PNP( 
+     IS=1.604E-14
+     NF=0.9982
+     ISE=3.351E-15
+     NE=1.397
+     BF=212.1
+     IKF=0.08039
+     VAF=37.2
+     NR=1.006
+     ISC=1.842E-14
+     NC=1.2  
+     BR=7.351
+     IKR=0.047
+     VAR=11.42
+     RB=1
+     IRB=1E-06
+     RBM=1  
+     RE=0.692
+     RC=0.6886
+     XTB=0
+     EG=1.11
+     XTI=3
+     CJE=1.307E-11
+     VJE=0.7282
+     MJE=0.396
+     TF=6.839E-10
+     XTF=9.882
+     VTF=5.669  
+     ITF=0.2739
+     PTF=0
+     CJC=6.848E-12
+     VJC=0.364
+     MJC=0.3835  
+     XCJC=0.6288
+     TR=1E-32
+     CJS=0
+     VJS=0.75
+     MJS=0.333
+     FC=0.99 )
*
*$
*
.MODEL Q2PA1774R/PLP PNP( 
+     IS=2.514E-14
+     NF=0.9978
+     ISE=5.697E-15
+     NE=1.421
+     BF=315.5  
+     IKF=0.08039
+     VAF=40.01
+     NR=1.001
+     ISC=2.533E-14
+     NC=1.25  
+     BR=9.217
+     IKR=0.047
+     VAR=32.02
+     RB=1
+     IRB=1E-06
+     RBM=1  
+     RE=0.6308
+     RC=0.956
+     XTB=0
+     EG=1.11
+     XTI=3
+     CJE=1.17E-11  
+     VJE=0.746
+     MJE=0.4143
+     TF=6.328E-10
+     XTF=6.555
+     VTF=2.416  
+     ITF=0.129
+     PTF=0
+     CJC=6.96E-12
+     VJC=0.778
+     MJC=0.6596  
+     XCJC=0.6288
+     TR=1E-32
+     CJS=0
+     VJS=0.75
+     MJS=0.333
+     FC=0.79 )
*
*$
*
.MODEL Q2PA1774S/PLP PNP( 
+     IS=2.515E-14
+     NF=0.993
+     ISE=3.596E-15
+     NE=1.414
+     BF=406.2 
+     IKF=0.08039
+     VAF=27.54
+     NR=0.998
+     ISC=5.876E-15
+     NC=1.15  
+     BR=12.22
+     IKR=0.02471
+     VAR=9.183
+     RB=1
+     IRB=1E-06
+     RBM=1  
+     RE=0.5387
+     RC=0.6883
+     XTB=0
+     EG=1.11
+     XTI=3
+     CJE=1.117E-11 
+     VJE=0.775
+     MJE=0.432
+     TF=5.807E-10
+     XTF=4.339
+     VTF=7.041
+     ITF=0.1482
+     PTF=0
+     CJC=7.054E-12
+     VJC=0.678
+     MJC=0.6696  
+     XCJC=0.6288
+     TR=1E-32
+     CJS=0
+     VJS=0.75
+     MJS=0.333
+     FC=0.8101)
*
*$
*
*
.SUBCKT Q2PB709AR/PLP 1 2 3
Q1 1 2 3 Q2PB709AR
+ 1
D1 1 2 DIODE
*
* The diode does not reflect a 
* physical device but improves 
* only modeling in the reverse 
* mode of operation.
*
.MODEL Q2PB709AR PNP
+ IS = 9.134E-15
+ NF = 0.9775
+ ISE = 5.035E-16
+ NE = 1.4
+ BF = 267.4
+ IKF = 0.095
+ VAF = 38
+ NR = 0.9848
+ ISC = 1.713E-15
+ NC = 1.034
+ BR = 17
+ IKR = 0.0075
+ VAR = 11.5
+ RB = 75
+ IRB = 0.0002144
+ RBM = 0.108
+ RE = 0.4
+ RC = 0.95
+ XTB = 0
+ EG = 1.11
+ XTI = 3
+ CJE = 1.126E-11
+ VJE = 0.7922
+ MJE = 0.3954
+ TF = 4.5E-10
+ XTF = 1.5
+ VTF = 20
+ ITF = 0.07
+ PTF = 0
+ CJC = 1.031E-11
+ VJC = 1
+ MJC = 0.6227
+ XCJC = 1
+ TR = 5.1E-08
+ CJS = 0
+ VJS = 0.75
+ MJS = 0.333
+ FC = 0.78
.MODEL DIODE D
+ IS = 4.065E-18
+ N = 0.9309
+ BV = 1000
+ IBV = 0.001
+ RS = 0.02115
+ CJO = 0
+ VJ = 1
+ M = 0.5
+ FC = 0
+ TT = 0
+ XTI = 2
+ EG = 1.11
+ XTI = 2
.ENDS
*$
*
.MODEL Q2PC4081Q/PLP NPN( 
+ IS = 1.533E-14
+ NF = 1.002
+ ISE = 7.932E-16
+ NE = 1.436
+ BF = 178.7  
+ IKF = 0.1216
+ VAF = 69.7
+ NR = 1.004
+ ISC = 8.305E-14
+ NC = 1.207  
+ BR = 8.628
+ IKR = 0.1121
+ VAR = 44.7
+ RB = 1
+ IRB = 1E-06
+ RBM = 1  
+ RE = 0.361
+ RC = 1.382
+ XTB = 0
+ EG = 1.11
+ XTI = 3
+ CJE = 1.457E-11  
+ VJE = 0.65
+ MJE = 0.3393
+ TF = 5.275E-10
+ XTF = 96.78
+ VTF = 2.012  
+ ITF = 0.4793
+ PTF = 0
+ CJC = 3.511E-12
+ VJC = 0.4485
+ MJC = 0.3646  
+ XCJC = 0.6193
+ TR = 1E-32
+ CJS = 0
+ VJS = 0.75
+ MJS = 0.333
+ FC = 0.9256 )
*$
*
.MODEL Q2PC4081R/PLP NPN( 
+ IS = 2.456E-14
+ NF = 0.997
+ ISE = 4.908E-15
+ NE = 1.706
+ BF = 265.4  
+ IKF = 0.1357
+ VAF = 63.2
+ NR = 1.004
+ ISC = 6.272E-14
+ NC = 1.243  
+ BR = 6.657
+ IKR = 0.1144
+ VAR = 25.9
+ RB = 1
+ IRB = 1E-06
+ RBM = 1  
+ RE = 0.4683
+ RC = 1.31
+ XTB = 0
+ EG = 1.11
+ XTI = 3
+ CJE = 1.384E-11  
+ VJE = 0.5561
+ MJE = 0.3437
+ TF = 5.275E-10
+ XTF = 127
+ VTF = 1.441  
+ ITF = 0.565
+ PTF = 0
+ CJC = 4.399E-12
+ VJC = 0.2006
+ MJC = 0.3344  
+ XCJC = 0.6193
+ TR = 1E-32
+ CJS = 0
+ VJS = 0.75
+ MJS = 0.333
+ FC = 0.8361 )
*$
*
.MODEL Q2PC4081S/PLP NPN( 
+ IS = 2.409E-14
+ NF = 0.997
+ ISE = 9.842E-16
+ NE = 1.464
+ BF = 351.8  
+ IKF = 0.1371
+ VAF = 52.64
+ NR = 1.004
+ ISC = 7.455E-14
+ NC = 1.237  
+ BR = 9.646
+ IKR = 0.1144
+ VAR = 364.5
+ RB = 1
+ IRB = 1E-06
+ RBM = 1  
+ RE = 0.3666
+ RC = 1.31
+ XTB = 0
+ EG = 1.11
+ XTI = 3
+ CJE = 1.233E-11  
+ VJE = 0.707
+ MJE = 0.3698
+ TF = 4.689E-10
+ XTF = 100
+ VTF = 2.586  
+ ITF = 0.5651
+ PTF = 0
+ CJC = 3.847E-12
+ VJC = 0.35
+ MJC = 0.3739  
+ XCJC = 0.6193
+ TR = 1E-32
+ CJS = 0
+ VJS = 0.75
+ MJS = 0.333
+ FC = 0.8945 )
*$
*
.MODEL Q2PC4617Q/PLP NPN( 
+     IS=1.533E-14
+     NF=1.002
+     ISE=7.932E-16
+     NE=1.436
+     BF=178.7  
+     IKF=0.1216
+     VAF=69.7
+     NR=1.004
+     ISC=8.305E-14
+     NC=1.207  
+     BR=8.628
+     IKR=0.1121
+     VAR=44.7
+     RB=1
+     IRB=1E-06
+     RBM=1  
+     RE=0.361
+     RC=1.382
+     XTB=0
+     EG=1.11
+     XTI=3
+     CJE=1.457E-11  
+     VJE=0.65
+     MJE=0.3393
+     TF=5.275E-10
+     XTF=96.78
+     VTF=2.012  
+     ITF=0.4793
+     PTF=0
+     CJC=3.511E-12
+     VJC=0.4485
+     MJC=0.3646  
+     XCJC=0.6193
+     TR=1E-32
+     CJS=0
+     VJS=0.75
+     MJS=0.333
+     FC=0.9256 )
*$
*
.MODEL Q2PC4617R/PLP NPN( 
+     IS=2.456E-14
+     NF=0.997
+     ISE=4.908E-15
+     NE=1.706
+     BF=265.4  
+     IKF=0.1357
+     VAF=63.2
+     NR=1.004
+     ISC=6.272E-14
+     NC=1.243  
+     BR=6.657
+     IKR=0.1144
+     VAR=25.9
+     RB=1
+     IRB=1E-06
+     RBM=1  
+     RE=0.4683
+     RC=1.31
+     XTB=0
+     EG=1.11
+     XTI=3
+     CJE=1.384E-11  
+     VJE=0.5561
+     MJE=0.3437
+     TF=5.275E-10
+     XTF=127
+     VTF=1.441  
+     ITF=0.565
+     PTF=0
+     CJC=4.399E-12
+     VJC=0.2006
+     MJC=0.3344  
+     XCJC=0.6193
+     TR=1E-32
+     CJS=0
+     VJS=0.75
+     MJS=0.333
+     FC=0.8361 )
*$
*
.MODEL Q2PC4617S/PLP NPN( 
+     IS=2.409E-14
+     NF=0.997
+     ISE=9.842E-16
+     NE=1.464
+     BF=351.8  
+     IKF=0.1371
+     VAF=52.64
+     NR=1.004
+     ISC=7.455E-14
+     NC=1.237  
+     BR=9.646
+     IKR=0.1144
+     VAR=364.5
+     RB=1
+     IRB=1E-06
+     RBM=1  
+     RE=0.3666
+     RC=1.31
+     XTB=0
+     EG=1.11
+     XTI=3
+     CJE=1.233E-11  
+     VJE=0.707
+     MJE=0.3698
+     TF=4.689E-10
+     XTF=100
+     VTF=2.586  
+     ITF=0.5651
+     PTF=0
+     CJC=3.847E-12
+     VJC=0.35
+     MJC=0.3739  
+     XCJC=0.6193
+     TR=1E-32
+     CJS=0
+     VJS=0.75
+     MJS=0.333
+     FC=0.8945 )
*$
*
.SUBCKT Q2PD601AR/PLP 1 2 3
Q1 1 2 3 Q2PD601AR
D1 2 1 DIODE
*
*The diode does not reflect a 
*physical device but improves 
*only modeling in the reverse 
*mode of operation.
*
.MODEL Q2PD601AR NPN
+ IS = 1.217E-14
+ NF = 0.9803
+ ISE = 1.129E-15
+ NE = 1.342
+ BF = 300
+ IKF = 0.16
+ VAF = 130
+ NR = 0.9758
+ ISC = 8.952E-15
+ NC = 1.2
+ BR = 6.2
+ IKR = 0.075
+ VAR = 20
+ RB = 10
+ IRB = 8E-05
+ RBM = 1
+ RE = 0.5
+ RC = 0.75
+ XTB = 0
+ EG = 1.11
+ XTI = 3
+ CJE = 1.362E-11
+ VJE = 0.7287
+ MJE = 0.36
+ TF = 3.8E-10
+ XTF = 1.5
+ VTF = 15
+ ITF = 0.085
+ PTF = 0
+ CJC = 5.522E-12
+ VJC = 0.4075
+ MJC = 0.3704
+ XCJC = 1
+ TR = 1E-07
+ CJS = 0
+ VJS = 0.75
+ MJS = 0.333
+ FC = 0.78
.MODEL DIODE D
+ IS = 4E-17
+ N = 1
+ BV = 1000
+ IBV = 0.001
+ RS = 0.1
+ CJO = 0
+ VJ = 1
+ M = 0.5
+ FC = 0
+ TT = 0
+ XTI = 2
+ EG = 1.11
+ XTI = 2
.ENDS
*$
*
.MODEL QBC337-16/PLP NPN( 
+ IS = 4.887E-14 
+ NF = 1.002 
+ ISE = 2.552E-15 
+ NE = 1.65 
+ BF = 207.2 
+ IKF = 0.902 
+ VAF = 184.8 
+ NR = 1.002 
+ ISC = 7.006E-14 
+ NC = 1.25 
+ BR = 21.85 
+ IKR = 0.1 
+ VAR = 20 
+ RB = 50 
+ IRB = 0.0002 
+ RBM = 2 
+ RE = 0.119 
+ RC = 0.25 
+ XTB = 0 
+ EG = 1.11 
+ XTI = 3 
+ CJE = 4.217E-11 
+ VJE = 0.6596 
+ MJE = 0.3434 
+ TF = 6E-10 
+ XTF = 2.1 
+ VTF = 2.4 
+ ITF = 0.79 
+ PTF = 86 
+ CJC = 1.734E-11 
+ VJC = 0.1419 
+ MJC = 0.3484 
+ XCJC = 0.455 
+ TR = 3.5E-08 
+ CJS = 0 
+ VJS = 0.75 
+ MJS = 0.333 
+ FC = 0.652)
*$
*
.MODEL QBC337-25/PLP NPN( 
+ IS = 4.13E-14 
+ NF = 0.9822 
+ ISE = 3.534E-15 

+ NE = 1.35 
+ BF = 292.4 
+ IKF = 0.9 
+ VAF = 145.7 
+ NR = 0.982 
+ ISC = 1.957E-13 
+ NC = 1.3 
+ BR = 23.68 
+ IKR = 0.1 
+ VAR = 20 
+ RB = 60 
+ IRB = 0.0002 
+ RBM = 8 
+ RE = 0.1129 
+ RC = 0.25 
+ XTB = 0 
+ EG = 1.11 
+ XTI = 3 
+ CJE = 3.799E-11 
+ VJE = 0.6752 
+ MJE = 0.3488 
+ TF = 5.4E-10 
+ XTF = 4 
+ VTF = 4.448 
+ ITF = 0.665 
+ PTF = 90 
+ CJC = 1.355E-11 
+ VJC = 0.3523 
+ MJC = 0.3831 
+ XCJC = 0.455 
+ TR = 3E-08 
+ CJS = 0 
+ VJS = 0.75 
+ MJS = 0.333 
+ FC = 0.643)
*$
*
.MODEL QBC337-40/PLP NPN( 
+ IS = 7.809E-14 
+ NF = 0.9916 
+ ISE = 2.069E-15 
+ NE = 1.4 
+ BF = 436.8 
+ IKF = 0.8 
+ VAF = 103.6 
+ NR = 0.991 
+ ISC = 6.66E-14 
+ NC = 1.2 
+ BR = 44.14 
+ IKR = 0.09 
+ VAR = 14 
+ RB = 70 
+ IRB = 0.0002 
+ RBM = 8 
+ RE = 0.12 
+ RC = 0.24 
+ XTB = 0 
+ EG = 1.11 
+ XTI = 3 
+ CJE = 3.579E-11 
+ VJE = 0.6657 
+ MJE = 0.3596 
+ TF = 5E-10 
+ XTF = 2.5 
+ VTF = 2 
+ ITF = 0.5 
+ PTF = 88 
+ CJC = 1.306E-11 
+ VJC = 0.3647 
+ MJC = 0.3658 
+ XCJC = 0.455 
+ TR = 2.5E-08 
+ CJS = 0 
+ VJS = 0.75 
+ MJS = 0.333 
+ FC = 0.843) 
*$
*
.MODEL QBC337/PLP NPN( 
+ IS = 4.13E-14 
+ NF = 0.9822 
+ ISE = 3.534E-15 
+ NE = 1.35 
+ BF = 292.4 
+ IKF = 0.9 
+ VAF = 145.7 
+ NR = 0.982 
+ ISC = 1.957E-13 
+ NC = 1.3 
+ BR = 23.68 
+ IKR = 0.1 
+ VAR = 20 
+ RB = 60 
+ IRB = 0.0002 
+ RBM = 8 
+ RE = 0.1129 
+ RC = 0.25 
+ XTB = 0 
+ EG = 1.11 
+ XTI = 3 
+ CJE = 3.799E-11 
+ VJE = 0.6752 
+ MJE = 0.3488 
+ TF = 5.4E-10 
+ XTF = 4 
+ VTF = 4.448 
+ ITF = 0.665 
+ PTF = 90 
+ CJC = 1.355E-11 
+ VJC = 0.3523 
+ MJC = 0.3831 
+ XCJC = 0.455 
+ TR = 3E-08 
+ CJS = 0 
+ VJS = 0.75 
+ MJS = 0.333 
+ FC = 0.643)
*$
*
.MODEL QBC337A/PLP NPN( 
+ IS = 4.887E-14 
+ NF = 1.002 
+ ISE = 2.552E-15 
+ NE = 1.65 
+ BF = 207.2 
+ IKF = 0.902 
+ VAF = 184.8 
+ NR = 1.002 
+ ISC = 7.006E-14 
+ NC = 1.25 
+ BR = 21.85 
+ IKR = 0.1 
+ VAR = 20 
+ RB = 50 
+ IRB = 0.0002 
+ RBM = 2 
+ RE = 0.119 
+ RC = 0.25 
+ XTB = 0 
+ EG = 1.11 
+ XTI = 3 
+ CJE = 4.217E-11 
+ VJE = 0.6596 
+ MJE = 0.3434 
+ TF = 6E-10 
+ XTF = 2.1 
+ VTF = 2.4 
+ ITF = 0.79 
+ PTF = 86 
+ CJC = 1.734E-11 
+ VJC = 0.1419 
+ MJC = 0.3484 
+ XCJC = 0.455 
+ TR = 3.5E-08 
+ CJS = 0 
+ VJS = 0.75 
+ MJS = 0.333 
+ FC = 0.652) 
*$
*
.MODEL QBC338-16/PLP NPN( 
+ IS = 4.887E-14 
+ NF = 1.002 
+ ISE = 2.552E-15 
+ NE = 1.65 
+ BF = 207.2 
+ IKF = 0.902 
+ VAF = 184.8 
+ NR = 1.002 
+ ISC = 7.006E-14 
+ NC = 1.25 
+ BR = 21.85 
+ IKR = 0.1 
+ VAR = 20 
+ RB = 50 
+ IRB = 0.0002 
+ RBM = 2 
+ RE = 0.119 
+ RC = 0.25 
+ XTB = 0 

+ EG = 1.11 
+ XTI = 3 
+ CJE = 4.217E-11 
+ VJE = 0.6596 
+ MJE = 0.3434 
+ TF = 6E-10 
+ XTF = 2.1 
+ VTF = 2.4 
+ ITF = 0.79 
+ PTF = 86 
+ CJC = 1.734E-11 
+ VJC = 0.1419 
+ MJC = 0.3484 
+ XCJC = 0.455 
+ TR = 3.5E-08 
+ CJS = 0 
+ VJS = 0.75 
+ MJS = 0.333 
+ FC = 0.652) 
*$
*
.MODEL QBC338-25/PLP NPN( 
+ IS = 4.13E-14 
+ NF = 0.9822 
+ ISE = 3.534E-15 
+ NE = 1.35 
+ BF = 292.4 
+ IKF = 0.9 
+ VAF = 145.7 
+ NR = 0.982 
+ ISC = 1.957E-13 
+ NC = 1.3 
+ BR = 23.68 
+ IKR = 0.1 
+ VAR = 20 
+ RB = 60 
+ IRB = 0.0002 
+ RBM = 8 
+ RE = 0.1129 
+ RC = 0.25 
+ XTB = 0 
+ EG = 1.11 
+ XTI = 3 
+ CJE = 3.799E-11 
+ VJE = 0.6752 
+ MJE = 0.3488 
+ TF = 5.4E-10 
+ XTF = 4 
+ VTF = 4.448 
+ ITF = 0.665 
+ PTF = 90 
+ CJC = 1.355E-11 
+ VJC = 0.3523 
+ MJC = 0.3831 
+ XCJC = 0.455 
+ TR = 3E-08 
+ CJS = 0 
+ VJS = 0.75 
+ MJS = 0.333 
+ FC = 0.643)
*$
*
.MODEL QBC338-40/PLP NPN( 
+ IS = 7.809E-14 
+ NF = 0.9916 
+ ISE = 2.069E-15 
+ NE = 1.4 
+ BF = 436.8 

+ IKF = 0.8 
+ VAF = 103.6 
+ NR = 0.991 
+ ISC = 6.66E-14 
+ NC = 1.2 
+ BR = 44.14 
+ IKR = 0.09 
+ VAR = 14 
+ RB = 70 
+ IRB = 0.0002 
+ RBM = 8 
+ RE = 0.12 
+ RC = 0.24 
+ XTB = 0 
+ EG = 1.11 
+ XTI = 3 
+ CJE = 3.579E-11 
+ VJE = 0.6657 
+ MJE = 0.3596 
+ TF = 5E-10 
+ XTF = 2.5 
+ VTF = 2 
+ ITF = 0.5 
+ PTF = 88 
+ CJC = 1.306E-11 
+ VJC = 0.3647 
+ MJC = 0.3658 
+ XCJC = 0.455 
+ TR = 2.5E-08 
+ CJS = 0 
+ VJS = 0.75 
+ MJS = 0.333 
+ FC = 0.843)
*$
*
.MODEL QBC338/PLP NPN( 
+ IS = 4.13E-14 
+ NF = 0.9822 
+ ISE = 3.534E-15 
+ NE = 1.35 
+ BF = 292.4 
+ IKF = 0.9 
+ VAF = 145.7 
+ NR = 0.982 
+ ISC = 1.957E-13 
+ NC = 1.3 
+ BR = 23.68 
+ IKR = 0.1 
+ VAR = 20 
+ RB = 60 
+ IRB = 0.0002 
+ RBM = 8 
+ RE = 0.1129 
+ RC = 0.25 
+ XTB = 0 
+ EG = 1.11 
+ XTI = 3 
+ CJE = 3.799E-11 
+ VJE = 0.6752 
+ MJE = 0.3488 
+ TF = 5.4E-10 
+ XTF = 4 
+ VTF = 4.448 
+ ITF = 0.665 
+ PTF = 90 
+ CJC = 1.355E-11 
+ VJC = 0.3523 
+ MJC = 0.3831 
+ XCJC = 0.455 
+ TR = 3E-08 
+ CJS = 0 
+ VJS = 0.75 
+ MJS = 0.333 
+ FC = 0.643)
*$
*
.MODEL QBC368/PLP NPN( 
+ IS = 2.474E-13
+ NF = 0.9998
+ ISE = 4.403E-14
+ NE = 1.400
+ BF = 196.2
+ IKF = 4.8360
+ VAF = 127.5
+ NR = 0.9995

+ ISC = 2.009E-13
+ NC = 1.500
+ BR = 30.57
+ IKR = 0.3264
+ VAR = 17.26
+ RB = 1
+ IRB = 1E-06
+ RBM = 1

+ RE = 0.1021
+ RC = 9.070E-02
+ XTB = 0
+ EG = 1.11
+ XTI = 3
+ CJE = 2.2260E-10
+ VJE = 0.8011
+ MJE = 0.3833
+ TF = 6.469E-10
+ XTF = 1.257
+ VTF = 1.735
+ ITF = 0.3542
+ PTF = 0
+ CJC = 8.735E-11
+ VJC = 0.5995
+ MJC = 0.4009
+ XCJC = 0.500
+ TR = 1E-32
+ CJS = 0
+ VJS = 0.75
+ MJS = 0.333
+ FC = 0.6153 )
*$
*
.MODEL QBC369/PLP PNP( 
+ IS = 2.105E-13
+ NF = 0.9952
+ ISE = 3.766E-15
+ NE = 1.4
+ BF = 281.1
+ IKF = 2.834
+ VAF = 44.23
+ NR = 0.9869
+ ISC = 2.789E-11
+ NC = 2.447
+ BR = 45.67
+ IKR = 0.344
+ VAR = 7.259
+ RB = 1
+ IRB = 1E-06
+ RBM = 1
+ RE = 0.05919
+ RC = 0.0262
+ XTB = 0
+ EG = 1.11
+ XTI = 3
+ CJE = 2.046E-10
+ VJE = 0.8827
+ MJE = 0.448
+ TF = 7.919E-10
+ XTF = 1.397
+ VTF = 2.332
+ ITF = 0.409
+ PTF = 0
+ CJC = 1.378E-10
+ VJC = 0.1427
+ MJC = 0.3018
+ XCJC = 0.508
+ TR = 1E-32
+ CJS = 0
+ VJS = 0.75
+ MJS = 0.333
+ FC = 0.309 )
*$
*
.MODEL QBC546A/PLP NPN( 
+ IS = 1.533E-14
+ NF = 1.002
+ ISE = 7.932E-16
+ NE = 1.436
+ BF = 178.7
+ IKF = 0.1216
+ VAF = 69.7
+ NR = 1.004
+ ISC = 8.305E-14
+ NC = 1.207
+ BR = 8.628
+ IKR = 0.1121
+ VAR = 44.7
+ RB = 1
+ IRB = 1E-06
+ RBM = 1
+ RE = 0.6395
+ RC = 0.6508
+ XTB = 0
+ EG = 1.11
+ XTI = 3
+ CJE = 1.61E-11

+ VJE = 0.4209
+ MJE = 0.3071
+ TF = 4.995E-10
+ XTF = 139
+ VTF = 3.523
+ ITF = 0.7021
+ PTF = 0
+ CJC = 4.388E-12
+ VJC = 0.2
+ MJC = 0.2793
+ XCJC = 0.6193
+ TR = 1E-32
+ CJS = 0
+ VJS = 0.75
+ MJS = 0.333
+ FC = 0.7762 )
*$
*
.MODEL QBC546B/PLP NPN( 
+ IS = 2.39E-14
+ NF = 1.008
+ ISE = 3.545E-15
+ NE = 1.541
+ BF = 294.3
+ IKF = 0.1357
+ VAF = 63.2
+ NR = 1.004

+ ISC = 6.272E-14
+ NC = 1.243
+ BR = 7.946
+ IKR = 0.1144
+ VAR = 25.9
+ RB = 1
+ IRB = 1E-06
+ RBM = 1
+ RE = 0.4683
+ RC = 0.85
+ XTB = 0
+ EG = 1.11
+ XTI = 3
+ CJE = 1.358E-11
+ VJE = 0.65
+ MJE = 0.3279
+ TF = 4.391E-10
+ XTF = 120
+ VTF = 2.643
+ ITF = 0.7495
+ PTF = 0
+ CJC = 3.728E-12
+ VJC = 0.3997
+ MJC = 0.2955
+ XCJC = 0.6193
+ TR = 1E-32
+ CJS = 0
+ VJS = 0.75
+ MJS = 0.333
+ FC = 0.9579 )
*$
*
.MODEL QBC547A/PLP NPN( 
+ IS = 1.533E-14
+ NF = 1.002
+ ISE = 7.932E-16

+ NE = 1.436
+ BF = 178.7
+ IKF = 0.1216
+ VAF = 69.7
+ NR = 1.004
+ ISC = 8.305E-14
+ NC = 1.207
+ BR = 8.628
+ IKR = 0.1121
+ VAR = 44.7
+ RB = 1
+ IRB = 1E-06
+ RBM = 1
+ RE = 0.6395
+ RC = 0.6508
+ XTB = 0
+ EG = 1.11
+ XTI = 3
+ CJE = 1.61E-11
+ VJE = 0.4209
+ MJE = 0.3071
+ TF = 4.995E-10
+ XTF = 139
+ VTF = 3.523
+ ITF = 0.7021
+ PTF = 0
+ CJC = 4.388E-12
+ VJC = 0.2
+ MJC = 0.2793
+ XCJC = 0.6193
+ TR = 1E-32
+ CJS = 0
+ VJS = 0.75
+ MJS = 0.333
+ FC = 0.7762 )
*$
*
.MODEL QBC547B/PLP NPN( 
+ IS = 2.39E-14
+ NF = 1.008
+ ISE = 3.545E-15
+ NE = 1.541
+ BF = 294.3
+ IKF = 0.1357
+ VAF = 63.2
+ NR = 1.004
+ ISC = 6.272E-14
+ NC = 1.243
+ BR = 7.946
+ IKR = 0.1144
+ VAR = 25.9
+ RB = 1
+ IRB = 1E-06
+ RBM = 1
+ RE = 0.4683
+ RC = 0.85
+ XTB = 0
+ EG = 1.11
+ XTI = 3
+ CJE = 1.358E-11
+ VJE = 0.65
+ MJE = 0.3279
+ TF = 4.391E-10
+ XTF = 120
+ VTF = 2.643
+ ITF = 0.7495
+ PTF = 0
+ CJC = 3.728E-12
+ VJC = 0.3997
+ MJC = 0.2955
+ XCJC = 0.6193
+ TR = 1E-32
+ CJS = 0
+ VJS = 0.75
+ MJS = 0.333
+ FC = 0.9579 )
*$
*
.MODEL QBC547C/PLP NPN( 
+ IS = 4.679E-14
+ NF = 1.01
+ ISE = 2.642E-15
+ NE = 1.581
+ BF = 458.7
+ IKF = 0.1371
+ VAF = 52.64
+ NR = 1.019
+ ISC = 2.337E-14
+ NC = 1.164
+ BR = 11.57
+ IKR = 0.1144
+ VAR = 364.5
+ RB = 1
+ IRB = 1E-06
+ RBM = 1
+ RE = 0.2598
+ RC = 1
+ XTB = 0
+ EG = 1.11
+ XTI = 3
+ CJE = 1.229E-11
+ VJE = 0.5591
+ MJE = 0.3385
+ TF = 4.689E-10
+ XTF = 160
+ VTF = 2.828
+ ITF = 0.8842
+ PTF = 0
+ CJC = 4.42E-12
+ VJC = 0.1994
+ MJC = 0.2782
+ XCJC = 0.6193
+ TR = 1E-32
+ CJS = 0
+ VJS = 0.75
+ MJS = 0.333
+ FC = 0.7936 )
*$
*
.MODEL QBC548A/PLP NPN( 
+ IS = 1.533E-14
+ NF = 1.002
+ ISE = 7.932E-16
+ NE = 1.436
+ BF = 178.7
+ IKF = 0.1216
+ VAF = 69.7
+ NR = 1.004
+ ISC = 8.305E-14
+ NC = 1.207
+ BR = 8.628
+ IKR = 0.1121
+ VAR = 44.7
+ RB = 1
+ IRB = 1E-06
+ RBM = 1
+ RE = 0.6395
+ RC = 0.6508
+ XTB = 0
+ EG = 1.11
+ XTI = 3
+ CJE = 1.61E-11
+ VJE = 0.4209
+ MJE = 0.3071
+ TF = 4.995E-10
+ XTF = 139
+ VTF = 3.523
+ ITF = 0.7021
+ PTF = 0
+ CJC = 4.388E-12
+ VJC = 0.2
+ MJC = 0.2793
+ XCJC = 0.6193
+ TR = 1E-32
+ CJS = 0
+ VJS = 0.75
+ MJS = 0.333
+ FC = 0.7762 )
*$
*
.MODEL QBC548B/PLP NPN( 
+ IS = 2.39E-14
+ NF = 1.008
+ ISE = 3.545E-15
+ NE = 1.541
+ BF = 294.3
+ IKF = 0.1357
+ VAF = 63.2
+ NR = 1.004
+ ISC = 6.272E-14
+ NC = 1.243
+ BR = 7.946
+ IKR = 0.1144
+ VAR = 25.9
+ RB = 1
+ IRB = 1E-06
+ RBM = 1
+ RE = 0.4683
+ RC = 0.85
+ XTB = 0
+ EG = 1.11
+ XTI = 3
+ CJE = 1.358E-11
+ VJE = 0.65
+ MJE = 0.3279
+ TF = 4.391E-10
+ XTF = 120
+ VTF = 2.643
+ ITF = 0.7495
+ PTF = 0
+ CJC = 3.728E-12
+ VJC = 0.3997
+ MJC = 0.2955
+ XCJC = 0.6193

+ TR = 1E-32
+ CJS = 0
+ VJS = 0.75
+ MJS = 0.333
+ FC = 0.9579 )
*$
*
.MODEL QBC548C/PLP NPN( 
+ IS = 4.679E-14
+ NF = 1.01
+ ISE = 2.642E-15
+ NE = 1.581
+ BF = 458.7
+ IKF = 0.1371
+ VAF = 52.64
+ NR = 1.019
+ ISC = 2.337E-14
+ NC = 1.164
+ BR = 11.57
+ IKR = 0.1144
+ VAR = 364.5
+ RB = 1
+ IRB = 1E-06
+ RBM = 1
+ RE = 0.2598
+ RC = 1
+ XTB = 0
+ EG = 1.11
+ XTI = 3
+ CJE = 1.229E-11
+ VJE = 0.5591
+ MJE = 0.3385
+ TF = 4.689E-10
+ XTF = 160
+ VTF = 2.828
+ ITF = 0.8842
+ PTF = 0
+ CJC = 4.42E-12
+ VJC = 0.1994
+ MJC = 0.2782
+ XCJC = 0.6193
+ TR = 1E-32
+ CJS = 0
+ VJS = 0.75
+ MJS = 0.333
+ FC = 0.7936)
*$
*
.MODEL QBC556A/PLP PNP( 
+ IS = 2.059E-14
+ NF = 1.003
+ ISE = 2.971E-15
+ NE = 1.316
+ BF = 227.3
+ IKF = 0.08719
+ VAF = 37.2
+ NR = 1.007
+ ISC = 1.339E-14
+ NC = 1.15
+ BR = 7.69
+ IKR = 0.07646
+ VAR = 11.42
+ RB = 1
+ IRB = 1E-06
+ RBM = 1
+ RE = 0.688
+ RC = 0.6437
+ XTB = 0
+ EG = 1.11
+ XTI = 3
+ CJE = 1.4E-11
+ VJE = 0.5912
+ MJE = 0.3572
+ TF = 7.046E-10
+ XTF = 4.217
+ VTF = 5.367
+ ITF = 0.1947
+ PTF = 0
+ CJC = 1.113E-11
+ VJC = 0.1
+ MJC = 0.3414
+ XCJC = 0.6288
+ TR = 1E-32
+ CJS = 0
+ VJS = 0.75
+ MJS = 0.333
+ FC = 0.7947 )
*$
*
.MODEL QBC556B/PLP PNP( 
+ IS = 3.834E-14
+ NF = 1.008
+ ISE = 1.219E-14
+ NE = 1.528
+ BF = 344.4
+ IKF = 0.08039
+ VAF = 21.11
+ NR = 1.005
+ ISC = 2.852E-13
+ NC = 1.28
+ BR = 14.84
+ IKR = 0.047
+ VAR = 32.02
+ RB = 1
+ IRB = 1E-06
+ RBM = 1
+ RE = 0.6202
+ RC = 0.5713
+ XTB = 0
+ EG = 1.11
+ XTI = 3
+ CJE = 1.23E-11
+ VJE = 0.6106
+ MJE = 0.378
+ TF = 5.595E-10
+ XTF = 3.414
+ VTF = 5.23
+ ITF = 0.1483
+ PTF = 0
+ CJC = 1.084E-11
+ VJC = 0.1022
+ MJC = 0.3563
+ XCJC = 0.6288
+ TR = 1E-32
+ CJS = 0
+ VJS = 0.75
+ MJS = 0.333
+ FC = 0.8027 )
*$
*
.MODEL QBC557A/PLP PNP( 
+ IS = 2.059E-14
+ NF = 1.003
+ ISE = 2.971E-15
+ NE = 1.316
+ BF = 227.3
+ IKF = 0.08719
+ VAF = 37.2
+ NR = 1.007
+ ISC = 1.339E-14
+ NC = 1.15
+ BR = 7.69
+ IKR = 0.07646
+ VAR = 11.42
+ RB = 1
+ IRB = 1E-06
+ RBM = 1
+ RE = 0.688
+ RC = 0.6437
+ XTB = 0
+ EG = 1.11
+ XTI = 3
+ CJE = 1.4E-11
+ VJE = 0.5912
+ MJE = 0.3572
+ TF = 7.046E-10
+ XTF = 4.217
+ VTF = 5.367
+ ITF = 0.1947
+ PTF = 0
+ CJC = 1.113E-11
+ VJC = 0.1
+ MJC = 0.3414
+ XCJC = 0.6288
+ TR = 1E-32
+ CJS = 0
+ VJS = 0.75
+ MJS = 0.333
+ FC = 0.7947 )
*$
*
.MODEL QBC557B/PLP PNP( 
+ IS = 3.834E-14
+ NF = 1.008
+ ISE = 1.219E-14
+ NE = 1.528
+ BF = 344.4
+ IKF = 0.08039
+ VAF = 21.11
+ NR = 1.005
+ ISC = 2.852E-13
+ NC = 1.28
+ BR = 14.84
+ IKR = 0.047
+ VAR = 32.02
+ RB = 1
+ IRB = 1E-06
+ RBM = 1
+ RE = 0.6202
+ RC = 0.5713
+ XTB = 0
+ EG = 1.11
+ XTI = 3
+ CJE = 1.23E-11
+ VJE = 0.6106

+ MJE = 0.378
+ TF = 5.595E-10
+ XTF = 3.414
+ VTF = 5.23
+ ITF = 0.1483
+ PTF = 0
+ CJC = 1.084E-11
+ VJC = 0.1022
+ MJC = 0.3563
+ XCJC = 0.6288
+ TR = 1E-32
+ CJS = 0
+ VJS = 0.75
+ MJS = 0.333
+ FC = 0.8027 )
*$
*
.MODEL QBC557C/PLP PNP( 
+ IS = 5.826E-14
+ NF = 1.009
+ ISE = 3.884E-15
+ NE = 1.408
+ BF = 516.7
+ IKF = 0.08039
+ VAF = 26.03

+ NR = 1.006
+ ISC = 4.014E-14
+ NC = 1.313
+ BR = 12.45
+ IKR = 0.07238
+ VAR = 6.717
+ RB = 1
+ IRB = 1E-06
+ RBM = 1
+ RE = 0.5685
+ RC = 0.6257
+ XTB = 0
+ EG = 1.11
+ XTI = 3
+ CJE = 1.26E-11
+ VJE = 0.3809
+ MJE = 0.3545
+ TF = 5.233E-10
+ XTF = 4.339
+ VTF = 5.425
+ ITF = 0.1896
+ PTF = 0
+ CJC = 7.798E-12
+ VJC = 0.5897
+ MJC = 0.4569
+ XCJC = 0.6288
+ TR = 1E-32
+ CJS = 0
+ VJS = 0.75
+ MJS = 0.333
+ FC = 0.5729 )
*$
*
.MODEL QBC558A/PLP PNP( 
+ IS = 2.059E-14
+ NF = 1.003
+ ISE = 2.971E-15
+ NE = 1.316
+ BF = 227.3
+ IKF = 0.08719
+ VAF = 37.2
+ NR = 1.007
+ ISC = 1.339E-14
+ NC = 1.15
+ BR = 7.69
+ IKR = 0.07646
+ VAR = 11.42
+ RB = 1
+ IRB = 1E-06
+ RBM = 1
+ RE = 0.688
+ RC = 0.6437
+ XTB = 0

+ EG = 1.11
+ XTI = 3
+ CJE = 1.4E-11
+ VJE = 0.5912
+ MJE = 0.3572
+ TF = 7.046E-10
+ XTF = 4.217
+ VTF = 5.367
+ ITF = 0.1947
+ PTF = 0
+ CJC = 1.113E-11
+ VJC = 0.1
+ MJC = 0.3414
+ XCJC = 0.6288
+ TR = 1E-32
+ CJS = 0
+ VJS = 0.75
+ MJS = 0.333
+ FC = 0.7947 )
*$
*
.MODEL QBC558B/PLP PNP( 
+ IS = 3.834E-14
+ NF = 1.008
+ ISE = 1.219E-14
+ NE = 1.528
+ BF = 344.4
+ IKF = 0.08039
+ VAF = 21.11
+ NR = 1.005
+ ISC = 2.852E-13
+ NC = 1.28
+ BR = 14.84
+ IKR = 0.047
+ VAR = 32.02
+ RB = 1
+ IRB = 1E-06
+ RBM = 1
+ RE = 0.6202
+ RC = 0.5713
+ XTB = 0
+ EG = 1.11
+ XTI = 3
+ CJE = 1.23E-11
+ VJE = 0.6106
+ MJE = 0.378
+ TF = 5.595E-10
+ XTF = 3.414
+ VTF = 5.23
+ ITF = 0.1483
+ PTF = 0
+ CJC = 1.084E-11
+ VJC = 0.1022
+ MJC = 0.3563
+ XCJC = 0.6288
+ TR = 1E-32
+ CJS = 0
+ VJS = 0.75
+ MJS = 0.333
+ FC = 0.8027 )
*$
*
.MODEL QBC558C/PLP PNP( 
+ IS = 5.826E-14
+ NF = 1.009
+ ISE = 3.884E-15
+ NE = 1.408
+ BF = 516.7
+ IKF = 0.08039
+ VAF = 26.03
+ NR = 1.006
+ ISC = 4.014E-14
+ NC = 1.313
+ BR = 12.45
+ IKR = 0.07238
+ VAR = 6.717
+ RB = 1
+ IRB = 1E-06
+ RBM = 1
+ RE = 0.5685
+ RC = 0.6257
+ XTB = 0
+ EG = 1.11
+ XTI = 3
+ CJE = 1.26E-11
+ VJE = 0.3809
+ MJE = 0.3545
+ TF = 5.233E-10
+ XTF = 4.339
+ VTF = 5.425
+ ITF = 0.1896
+ PTF = 0
+ CJC = 7.798E-12
+ VJC = 0.5897
+ MJC = 0.4569
+ XCJC = 0.6288
+ TR = 1E-32
+ CJS = 0
+ VJS = 0.75
+ MJS = 0.333
+ FC = 0.5729 )
*$
*
.MODEL QBC807-25/PLP PNP( 
+ IS = 1.08E-13
+ NF = 0.99
+ ISE = 2.713E-14
+ NE = 1.4
+ BF = 385.7
+ IKF = 0.3603
+ VAF = 31.29
+ NR = 0.9849
+ ISC = 5.062E-13
+ NC = 1.295
+ BR = 20.57
+ IKR = 0.054
+ VAR = 11.62
+ RB = 1
+ IRB = 1E-06
+ RBM = 0.5
+ RE = 0.1415
+ RC = 0.2623
+ XTB = 0
+ EG = 1.11
+ XTI = 3
+ CJE = 5.114E-11
+ VJE = 0.8911
+ MJE = 0.4417
+ TF = 7.359E-10
+ XTF = 1.859
+ VTF = 3.813
+ ITF = 0.4393
+ PTF = 0
+ CJC = 2.656E-11
+ VJC = 0.62
+ MJC = 0.4836
+ XCJC = 0.459
+ TR = 5.00E-08
+ CJS = 0
+ VJS = 0.75
+ MJS = 0.333
+ FC = 0.99)
*$
*
.MODEL QBC807-25W/PLP PNP( 
+ IS = 1.08E-13
+ NF = 0.99
+ ISE = 2.713E-14
+ NE = 1.4
+ BF = 385.7
+ IKF = 0.3603
+ VAF = 31.29
+ NR = 0.9849
+ ISC = 5.062E-13
+ NC = 1.295
+ BR = 20.57
+ IKR = 0.054
+ VAR = 11.62
+ RB = 1
+ IRB = 1E-06
+ RBM = 0.5
+ RE = 0.1415
+ RC = 0.2623
+ XTB = 0
+ EG = 1.11
+ XTI = 3
+ CJE = 5.114E-11
+ VJE = 0.8911
+ MJE = 0.4417
+ TF = 7.359E-10
+ XTF = 1.859
+ VTF = 3.813
+ ITF = 0.4393
+ PTF = 0
+ CJC = 2.656E-11
+ VJC = 0.62
+ MJC = 0.4836
+ XCJC = 0.459
+ TR = 5E-08
+ CJS = 0
+ VJS = 0.75
+ MJS = 0.333
+ FC = 0.99)
*$
*
.MODEL QBC807/PLP PNP( 
+ IS = 1.08E-13
+ NF = 0.99
+ ISE = 2.713E-14
+ NE = 1.4
+ BF = 385.7
+ IKF = 0.3603
+ VAF = 31.29
+ NR = 0.9849
+ ISC = 5.062E-13
+ NC = 1.295
+ BR = 20.57
+ IKR = 0.054
+ VAR = 11.62
+ RB = 1
+ IRB = 1E-06
+ RBM = 0.5
+ RE = 0.1415
+ RC = 0.2623
+ XTB = 0
+ EG = 1.11
+ XTI = 3
+ CJE = 5.114E-11
+ VJE = 0.8911
+ MJE = 0.4417
+ TF = 7.359E-10
+ XTF = 1.859
+ VTF = 3.813
+ ITF = 0.4393
+ PTF = 0
+ CJC = 2.656E-11
+ VJC = 0.62
+ MJC = 0.4836
+ XCJC = 0.459
+ TR = 5.00E-08
+ CJS = 0
+ VJS = 0.75
+ MJS = 0.333
+ FC = 0.99)
*$
*
.MODEL QBC807W/PLP PNP( 
+ IS = 1.08E-13
+ NF = 0.99
+ ISE = 2.713E-14
+ NE = 1.4
+ BF = 385.7
+ IKF = 0.3603
+ VAF = 31.29
+ NR = 0.9849
+ ISC = 5.062E-13
+ NC = 1.295
+ BR = 20.57
+ IKR = 0.054
+ VAR = 11.62
+ RB = 1
+ IRB = 1E-06
+ RBM = 0.5
+ RE = 0.1415
+ RC = 0.2623
+ XTB = 0
+ EG = 1.11
+ XTI = 3
+ CJE = 5.114E-11
+ VJE = 0.8911
+ MJE = 0.4417
+ TF = 7.359E-10
+ XTF = 1.859
+ VTF = 3.813
+ ITF = 0.4393
+ PTF = 0
+ CJC = 2.656E-11
+ VJC = 0.62
+ MJC = 0.4836
+ XCJC = 0.459
+ TR = 5.00E-08
+ CJS = 0
+ VJS = 0.75
+ MJS = 0.333
+ FC = 0.99)
*$
*
.MODEL QBC808-25/PLP PNP( 
+ IS = 1.08E-13
+ NF = 0.99
+ ISE = 2.713E-14
+ NE = 1.4
+ BF = 385.7

+ IKF = 0.3603
+ VAF = 31.29
+ NR = 0.9849
+ ISC = 5.062E-13
+ NC = 1.295
+ BR = 20.57
+ IKR = 0.054
+ VAR = 11.62
+ RB = 1
+ IRB = 1E-06
+ RBM = 0.5
+ RE = 0.1415
+ RC = 0.2623
+ XTB = 0
+ EG = 1.11
+ XTI = 3
+ CJE = 5.114E-11
+ VJE = 0.8911
+ MJE = 0.4417
+ TF = 7.359E-10
+ XTF = 1.859
+ VTF = 3.813
+ ITF = 0.4393
+ PTF = 0 
+ CJC = 2.656E-11
+ VJC = 0.62
+ MJC = 0.4836
+ XCJC = 0.459
+ TR = 5.00E-08
+ CJS = 0
+ VJS = 0.75
+ MJS = 0.333
+ FC = 0.99)
*$
*
.MODEL QBC808-25W/PLP PNP( 
+ IS = 1.08E-13
+ NF = 0.99
+ ISE = 2.713E-14
+ NE = 1.4
+ BF = 385.7
+ IKF = 0.3603
+ VAF = 31.29
+ NR = 0.9849
+ ISC = 5.062E-13
+ NC = 1.295
+ BR = 20.57
+ IKR = 0.054
+ VAR = 11.62
+ RB = 1
+ IRB = 1E-06
+ RBM = 0.5
+ RE = 0.1415
+ RC = 0.2623
+ XTB = 0
+ EG = 1.11
+ XTI = 3
+ CJE = 5.114E-11
+ VJE = 0.8911
+ MJE = 0.4417
+ TF = 7.359E-10
+ XTF = 1.859
+ VTF = 3.813
+ ITF = 0.4393
+ PTF = 0
+ CJC = 2.656E-11
+ VJC = 0.62
+ MJC = 0.4836
+ XCJC = 0.459
+ TR = 5E-08
+ CJS = 0
+ VJS = 0.75
+ MJS = 0.333
+ FC = 0.99)
*$
*
.MODEL QBC808/PLP PNP( 
+ IS = 1.08E-13
+ NF = 0.99
+ ISE = 2.713E-14
+ NE = 1.4
+ BF = 385.7
+ IKF = 0.3603
+ VAF = 31.29
+ NR = 0.9849
+ ISC = 5.062E-13
+ NC = 1.295
+ BR = 20.57
+ IKR = 0.054
+ VAR = 11.62
+ RB = 1
+ IRB = 1E-06
+ RBM = 0.5
+ RE = 0.1415
+ RC = 0.2623
+ XTB = 0
+ EG = 1.11
+ XTI = 3
+ CJE = 5.114E-11
+ VJE = 0.8911
+ MJE = 0.4417
+ TF = 7.359E-10
+ XTF = 1.859
+ VTF = 3.813
+ ITF = 0.4393
+ PTF = 0
+ CJC = 2.656E-11
+ VJC = 0.62
+ MJC = 0.4836
+ XCJC = 0.459
+ TR = 5.00E-08
+ CJS = 0
+ VJS = 0.75
+ MJS = 0.333
+ FC = 0.99)
*$
*
.MODEL QBC808W/PLP PNP( 
+ IS = 1.08E-13
+ NF = 0.99
+ ISE = 2.713E-14
+ NE = 1.4
+ BF = 385.7
+ IKF = 0.3603
+ VAF = 31.29
+ NR = 0.9849
+ ISC = 5.062E-13
+ NC = 1.295
+ BR = 20.57
+ IKR = 0.054
+ VAR = 11.62
+ RB = 1