Version 4
SHEET 1 880 680
WIRE 352 112 288 112
WIRE 288 128 288 112
WIRE 288 128 192 128
WIRE 128 176 32 176
FLAG 192 224 0
FLAG 352 192 0
FLAG 32 96 0
SYMBOL voltage 352 96 R0
WINDOW 123 0 0 Left 2
WINDOW 39 0 0 Left 2
SYMATTR InstName V1
SYMATTR Value 1.25
SYMBOL current 32 96 R0
WINDOW 123 0 0 Left 2
WINDOW 39 0 0 Left 2
SYMATTR InstName I2
SYMATTR Value 0.0000188
SYMBOL npn 128 128 R0
SYMATTR InstName Q1
SYMATTR Value MiModelo
TEXT 0 248 Left 2 !.dc V1 0 5 0.1
TEXT -136 32 Left 2 !.MODEL MiModelo NPN (BF=260 IS=1.063400e-13 VAF=95.07731)
