Version 4
SHEET 1 1296 680
WIRE 416 128 224 128
WIRE 176 208 32 208
WIRE 32 224 32 208
WIRE 32 368 32 304
WIRE 224 368 224 224
WIRE 416 368 416 208
FLAG 32 368 0
FLAG 224 368 0
FLAG 416 368 0
SYMBOL nmos 176 128 R0
SYMATTR InstName M1
SYMATTR Value MiModelo
SYMBOL voltage 32 208 R0
SYMATTR InstName VG
SYMATTR Value 2.3950
SYMBOL voltage 416 112 R0
SYMATTR InstName VD
SYMATTR Value 5
TEXT 72 48 Left 2 !.INCLUDE CD4007.lib
TEXT 80 -24 Left 2 !.dc VG 0 5 0.1
TEXT 88 8 Left 2 !;dc VD 0 5 0.1
TEXT 72 80 Left 2 !.MODEL MiModelo NMOS (LEVEL=1 KP=7.5581e-04 VT0=1.1703 LAMBDA=0.0085116)
